*Heading
** Job name: Job-1 Model name: No delamination
** Generated by: Abaqus/CAE 2022
*Preprint, echo=NO, model=NO, history=NO, contact=NO
**
** PARTS
**
*Part, name=Part-1
*Node
      1, 0.0199999996,  0.200000003, 0.00104999996
      2, 0.0199999996,           0., 0.00104999996
      3,           0.,           0., 0.00104999996
      4,           0.,  0.200000003, 0.00104999996
      5, 0.0199999996,           0., 0.000899999985
      6, 0.0199999996,  0.200000003, 0.000899999985
      7,           0.,  0.200000003, 0.000899999985
      8,           0.,           0., 0.000899999985
      9, 0.0199999996,  0.200000003, 0.000750000007
     10, 0.0199999996,           0., 0.000750000007
     11,           0.,           0., 0.000750000007
     12,           0.,  0.200000003, 0.000750000007
     13, 0.0199999996,  0.200000003, 0.000600000028
     14, 0.0199999996,           0., 0.000600000028
     15,           0.,           0., 0.000600000028
     16,           0.,  0.200000003, 0.000600000028
     17, 0.0199999996,  0.200000003, 0.000450000021
     18, 0.0199999996,           0., 0.000450000021
     19,           0.,           0., 0.000450000021
     20,           0.,  0.200000003, 0.000450000021
** ... 37969 like lines cut
*Element, type=SC8R
   1,     1,    37,  3961,   472,     6,   671,  7742,   672
   2,    37,    38,  3962,  3961,   671,   670,  7743,  7742
   3,    38,    39,  3963,  3962,   670,   669,  7744,  7743
   4,    39,    40,  3964,  3963,   669,   668,  7745,  7744
   5,    40,    41,  3965,  3964,   668,   667,  7746,  7745
   6,    41,    42,  3966,  3965,   667,   666,  7747,  7746
   7,    42,    43,  3967,  3966,   666,   665,  7748,  7747
   8,    43,    44,  3968,  3967,   665,   664,  7749,  7748
   9,    44,    45,  3969,  3968,   664,   663,  7750,  7749
  10,    45,    46,  3970,  3969,   663,   662,  7751,  7750
  11,    46,    47,  3971,  3970,   662,   661,  7752,  7751
  12,    47,    48,  3972,  3971,   661,   660,  7753,  7752
  13,    48,    49,  3973,  3972,   660,   659,  7754,  7753
  14,    49,    50,  3974,  3973,   659,   658,  7755,  7754
  15,    50,    51,  3975,  3974,   658,   657,  7756,  7755
  16,    51,    52,  3976,  3975,   657,   656,  7757,  7756
  17,    52,    53,  3977,  3976,   656,   655,  7758,  7757
  18,    53,    54,  3978,  3977,   655,   654,  7759,  7758
  19,    54,    55,  3979,  3978,   654,   653,  7760,  7759
  20,    55,    56,  3980,  3979,   653,   652,  7761,  7760
** ... 31980 like lines cut
*Orientation, name=Ori-5
1., 0., 0., 0., 1., 0.
3, 0.
** Region: (CompositeLayup-1-5: Generated From Layup)
*Elset, elset=CompositeLayup-1-5, generate
    1,  4000,     1
** Section: CompositeLayup-1-5
*Shell Section, elset=CompositeLayup-1-5, composite, orientation=Ori-5, stack direction=3, layup=CompositeLayup-1
1., 3, Material-1, 0., Ply-2
*Orientation, name=Ori-2
1., 0., 0., 0., 1., 0.
3, 0.
** Region: (CompositeLayup-1-2: Generated From Layup)
*Elset, elset=CompositeLayup-1-2, generate
 4001,  8000,     1
** Section: CompositeLayup-1-2
*Shell Section, elset=CompositeLayup-1-2, composite, orientation=Ori-2, stack direction=3, layup=CompositeLayup-1
1., 3, Material-1, 90., Ply-3
*Orientation, name=Ori-6
1., 0., 0., 0., 1., 0.
3, 0.
** Region: (CompositeLayup-1-6: Generated From Layup)
*Elset, elset=CompositeLayup-1-6, generate
  8001,  12000,      1
** Section: CompositeLayup-1-6
*Shell Section, elset=CompositeLayup-1-6, composite, orientation=Ori-6, stack direction=3, layup=CompositeLayup-1
1., 3, Material-1, 0., Ply-4
*Orientation, name=Ori-3
1., 0., 0., 0., 1., 0.
3, 0.
** Region: (CompositeLayup-1-3: Generated From Layup)
*Elset, elset=CompositeLayup-1-3, generate
 12001,  16000,      1
** Section: CompositeLayup-1-3
*Shell Section, elset=CompositeLayup-1-3, composite, orientation=Ori-3, stack direction=3, layup=CompositeLayup-1
1., 3, Material-1, 0., Ply-5
*Orientation, name=Ori-7
1., 0., 0., 0., 1., 0.
3, 0.
** Region: (CompositeLayup-1-7: Generated From Layup)
*Elset, elset=CompositeLayup-1-7, generate
 16001,  20000,      1
** Section: CompositeLayup-1-7
*Shell Section, elset=CompositeLayup-1-7, composite, orientation=Ori-7, stack direction=3, layup=CompositeLayup-1
1., 3, Material-1, 90., Ply-6
*Orientation, name=Ori-4
1., 0., 0., 0., 1., 0.
3, 0.
** Region: (CompositeLayup-1-4: Generated From Layup)
*Elset, elset=CompositeLayup-1-4, generate
 20001,  24000,      1
** Section: CompositeLayup-1-4
*Shell Section, elset=CompositeLayup-1-4, composite, orientation=Ori-4, stack direction=3, layup=CompositeLayup-1
1., 3, Material-1, 0., Ply-7
*Orientation, name=Ori-8
1., 0., 0., 0., 1., 0.
3, 0.
** Region: (CompositeLayup-1-8: Generated From Layup)
*Elset, elset=CompositeLayup-1-8, generate
 24001,  28000,      1
** Section: CompositeLayup-1-8
*Shell Section, elset=CompositeLayup-1-8, composite, orientation=Ori-8, stack direction=3, layup=CompositeLayup-1
1., 3, Material-1, 90., Ply-8
*Orientation, name=Ori-1
1., 0., 0., 0., 1., 0.
3, 0.
** Region: (CompositeLayup-1-1: Generated From Layup)
*Elset, elset=CompositeLayup-1-1, generate
 28001,  32000,      1
** Section: CompositeLayup-1-1
*Shell Section, elset=CompositeLayup-1-1, composite, orientation=Ori-1, stack direction=3, layup=CompositeLayup-1
1., 3, Material-1, 90., Ply-1
*End Part
**  
**
** ASSEMBLY
**
*Assembly, name=Assembly
**  
*Instance, name=Part-1-1, part=Part-1
*End Instance
**  
*Nset, nset=_PickedSet4, internal, instance=Part-1-1
    2,    3,    5,    8,   10,   11,   14,   15,   18,   19,   22,   23,   26,   27,   29,   30
   34,   35,  236,  237,  238,  239,  240,  241,  242,  243,  244,  245,  246,  247,  248,  249
  250,  251,  252,  253,  254,  890,  891,  892,  893,  894,  895,  896,  897,  898,  899,  900
  901,  902,  903,  904,  905,  906,  907,  908, 1108, 1109, 1110, 1111, 1112, 1113, 1114, 1115
 1116, 1117, 1118, 1119, 1120, 1121, 1122, 1123, 1124, 1125, 1126, 1544, 1545, 1546, 1547, 1548
 1549, 1550, 1551, 1552, 1553, 1554, 1555, 1556, 1557, 1558, 1559, 1560, 1561, 1562, 1980, 1981
 1982, 1983, 1984, 1985, 1986, 1987, 1988, 1989, 1990, 1991, 1992, 1993, 1994, 1995, 1996, 1997
 1998, 2416, 2417, 2418, 2419, 2420, 2421, 2422, 2423, 2424, 2425, 2426, 2427, 2428, 2429, 2430
 2431, 2432, 2433, 2434, 2852, 2853, 2854, 2855, 2856, 2857, 2858, 2859, 2860, 2861, 2862, 2863
 2864, 2865, 2866, 2867, 2868, 2869, 2870, 3089, 3090, 3091, 3092, 3093, 3094, 3095, 3096, 3097
 3098, 3099, 3100, 3101, 3102, 3103, 3104, 3105, 3106, 3107, 3724, 3725, 3726, 3727, 3728, 3729
 3730, 3731, 3732, 3733, 3734, 3735, 3736, 3737, 3738, 3739, 3740, 3741, 3742
*Elset, elset=_PickedSet4, internal, instance=Part-1-1, generate
   200,  32000,    200
*End Assembly
** 
** MATERIALS
** 
*Material, name=Material-1
*Density
 1942.5,
*Elastic, type=LAMINA
 4.47e+10, 1.32e+10,      0.3,    5e+09,    5e+09,    5e+09
** 
** BOUNDARY CONDITIONS
** 
** Name: BC-1 Type: Symmetry/Antisymmetry/Encastre
*Boundary
_PickedSet4, ENCASTRE
** ----------------------------------------------------------------
** 
** STEP: Step-1
** 
*Step, name=Step-1, nlgeom=NO, perturbation
*Frequency, eigensolver=Lanczos, sim, acoustic coupling=on, normalization=mass
10, , , , , 
** 
** OUTPUT REQUESTS
** 
*Restart, write, frequency=0
** 
** FIELD OUTPUT: F-Output-1
** 
*Output, field, variable=PRESELECT
** 
** HISTORY OUTPUT: H-Output-1
** 
*Output, history, variable=PRESELECT
*End Step
