 Abaqus/Standard 2022                  DATE 29-Jul-2022 TIME 18:36:50
 SUMMARY OF JOB INFORMATION:
 STEP  INC ATT SEVERE EQUIL TOTAL  TOTAL      STEP       INC OF       DOF    IF
               DISCON ITERS ITERS  TIME/    TIME/LPF    TIME/LPF    MONITOR RIKS
               ITERS               FREQ
   1     1   1     0     0     0  0.000      1.00e-36   1.000e-36 
                          
 THE ANALYSIS HAS COMPLETED SUCCESSFULLY
